
data_findsym-output
_audit_creation_method FINDSYM
 
_cell_length_a    6.4000000000
_cell_length_b    6.4000000000
_cell_length_c    6.4000000000
_cell_angle_alpha 90.0000000000
_cell_angle_beta  90.0000000000
_cell_angle_gamma 90.0000000000
_cell_volume      262.1440000000
 
_symmetry_space_group_name_H-M "P 1"
_symmetry_Int_Tables_number 1
_space_group.reference_setting '001:P 1'
_space_group.transform_Pp_abc a,b,c;0,0,0
 
loop_
_space_group_symop_id
_space_group_symop_operation_xyz
1 x,y,z
 
loop_
_atom_site_label
_atom_site_type_symbol
_atom_site_symmetry_multiplicity
_atom_site_Wyckoff_label
_atom_site_fract_x
_atom_site_fract_y
_atom_site_fract_z
Al1 Al   1 a 0.00000 0.00000 0.00000 
Al2 Al   1 a 0.00000 0.50000 0.50000 
Al3 Al   1 a 0.50000 0.00000 0.50000 
Al4 Al   1 a 0.50000 0.50000 0.00000 
V1  V    1 a 0.25000 0.25000 0.25000 
V2  V    1 a 0.25000 0.75000 0.75000 
V3  V    1 a 0.75000 0.25000 0.75000 
V4  V    1 a 0.75000 0.75000 0.25000 
Cr1 Cr   1 a 0.50000 0.50000 0.50000 
Cr2 Cr   1 a 0.50000 0.00000 0.00000 
Cr3 Cr   1 a 0.00000 0.50000 0.00000 
Cr4 Cr   1 a 0.00000 0.00000 0.50000 
Ti1 Ti   1 a 0.75000 0.75000 0.75000 
Ti2 Ti   1 a 0.75000 0.25000 0.25000 
Ti3 Ti   1 a 0.25000 0.75000 0.25000 
Ti4 Ti   1 a 0.25000 0.25000 0.75000 

